MODEL 1
REMARK VINA RESULT:   -13.242      0.000      0.000
REMARK INTER + INTRA:         -19.116
REMARK INTER:                 -18.661
REMARK INTRA:                  -0.455
REMARK UNBOUND:                -0.455
REMARK Flexibility Score: inf
REMARK Active torsions [ 7 ] -> [ 7 ]
ROOT
ATOM      1  C1  LIG L   1      15.845  54.738  12.395  1.00  0.00     0.038 A 
ATOM      2  C2  LIG L   1      16.922  54.579  11.411  1.00  0.00    -0.029 A 
ATOM      3  C3  LIG L   1      17.905  53.559  11.640  1.00  0.00     0.007 A 
ATOM      4  C4  LIG L   1      17.829  52.714  12.807  1.00  0.00     0.024 A 
ATOM      5  C5  LIG L   1      16.782  52.864  13.762  1.00  0.00     0.035 A 
ATOM      6  C6  LIG L   1      15.785  53.898  13.536  1.00  0.00     0.047 A 
ATOM      7  C7  LIG L   1      17.049  55.451  10.140  1.00  0.00     0.045 C 
ENDROOT
BRANCH    1    8
ATOM      8  N1  LIG L   1      14.861  55.715  12.227  1.00  0.00    -0.283 N 
ATOM      9  H1  LIG L   1      13.985  55.465  11.852  1.00  0.00     0.155 HD
BRANCH    8   10
ATOM     10  C8  LIG L   1      15.103  57.033  12.583  1.00  0.00     0.220 A 
ATOM     11  C9  LIG L   1      14.265  59.258  12.738  1.00  0.00     0.077 A 
ATOM     12 C10  LIG L   1      15.519  59.718  13.262  1.00  0.00     0.048 A 
ATOM     13  N2  LIG L   1      14.106  57.927  12.420  1.00  0.00    -0.214 NA
ATOM     14 C11  LIG L   1      16.546  58.761  13.424  1.00  0.00     0.116 A 
ATOM     15  N3  LIG L   1      16.324  57.444  13.084  1.00  0.00    -0.223 NA
BRANCH   11   16
ATOM     16 C12  LIG L   1      13.085  60.149  12.507  1.00  0.00     0.019 A 
ATOM     17 C13  LIG L   1      11.811  62.302  12.832  1.00  0.00     0.020 A 
ATOM     18 C14  LIG L   1      12.972  61.481  13.087  1.00  0.00     0.013 A 
ATOM     19 C15  LIG L   1      10.770  61.769  11.992  1.00  0.00     0.111 A 
ATOM     20  N4  LIG L   1      10.891  60.486  11.437  1.00  0.00    -0.263 NA
ATOM     21 C16  LIG L   1      11.998  59.674  11.664  1.00  0.00     0.120 A 
ENDBRANCH   11   16
ENDBRANCH    8   10
ENDBRANCH    1    8
BRANCH    5   22
ATOM     22  N5  LIG L   1      16.768  51.976  14.898  1.00  0.00    -0.281 N 
ATOM     23 C17  LIG L   1      15.726  51.735  15.778  1.00  0.00     0.248 C 
ATOM     24  H2  LIG L   1      17.602  51.481  15.070  1.00  0.00     0.155 HD
ATOM     25  O1  LIG L   1      14.710  52.411  15.848  1.00  0.00    -0.270 OA
BRANCH   23   26
ATOM     26 C18  LIG L   1      15.833  50.586  16.728  1.00  0.00     0.037 A 
ATOM     27 C19  LIG L   1      17.106  49.892  16.940  1.00  0.00     0.013 A 
ATOM     28 C20  LIG L   1      14.650  50.151  17.438  1.00  0.00     0.013 A 
ATOM     29 C21  LIG L   1      17.178  48.775  17.849  1.00  0.00     0.002 A 
ATOM     30 C22  LIG L   1      14.725  49.057  18.329  1.00  0.00     0.002 A 
ATOM     31 C23  LIG L   1      15.973  48.347  18.554  1.00  0.00    -0.064 A 
BRANCH   31   32
ATOM     32 C24  LIG L   1      15.953  47.152  19.526  1.00  0.00    -0.043 C 
BRANCH   32   33
ATOM     33  N6  LIG L   1      17.225  46.828  20.237  1.00  0.00     0.380 N 
ATOM     34 C25  LIG L   1      17.519  47.862  21.297  1.00  0.00    -0.097 C 
ATOM     35 C26  LIG L   1      17.194  45.430  20.861  1.00  0.00    -0.097 C 
ATOM     36  H3  LIG L   1      17.970  46.841  19.541  1.00  0.00    -0.082 HD
ATOM     37 C27  LIG L   1      18.851  47.554  22.036  1.00  0.00    -0.098 C 
ATOM     38 C28  LIG L   1      18.542  45.098  21.581  1.00  0.00    -0.098 C 
ATOM     39  N7  LIG L   1      18.822  46.160  22.647  1.00  0.00     0.375 N 
ATOM     40 C29  LIG L   1      20.058  45.819  23.365  1.00  0.00    -0.096 C 
ATOM     41  H4  LIG L   1      18.063  46.171  23.329  1.00  0.00    -0.082 HD
ENDBRANCH   32   33
ENDBRANCH   31   32
ENDBRANCH   23   26
ENDBRANCH    5   22
TORSDOF 7
ENDMDL
MODEL 2
REMARK VINA RESULT:   -11.256      2.960     12.388
REMARK INTER + INTRA:         -16.316
REMARK INTER:                 -15.369
REMARK INTRA:                  -0.948
REMARK UNBOUND:                -0.455
REMARK Flexibility Score: inf
REMARK Active torsions [ 7 ] -> [ 7 ]
ROOT
ATOM      1  C1  LIG L   1      16.861  48.707  17.634  1.00  0.00     0.038 A 
ATOM      2  C2  LIG L   1      15.539  48.420  18.205  1.00  0.00    -0.029 A 
ATOM      3  C3  LIG L   1      14.473  49.345  17.945  1.00  0.00     0.007 A 
ATOM      4  C4  LIG L   1      14.699  50.520  17.142  1.00  0.00     0.024 A 
ATOM      5  C5  LIG L   1      15.981  50.800  16.583  1.00  0.00     0.035 A 
ATOM      6  C6  LIG L   1      17.066  49.867  16.846  1.00  0.00     0.047 A 
ATOM      7  C7  LIG L   1      15.238  47.172  19.068  1.00  0.00     0.045 C 
ENDROOT
BRANCH    1    8
ATOM      8  N1  LIG L   1      17.938  47.845  17.855  1.00  0.00    -0.283 N 
ATOM      9  H1  LIG L   1      17.997  47.001  17.352  1.00  0.00     0.155 HD
BRANCH    8   10
ATOM     10  C8  LIG L   1      18.925  48.167  18.773  1.00  0.00     0.220 A 
ATOM     11  C9  LIG L   1      20.915  49.391  19.237  1.00  0.00     0.077 A 
ATOM     12 C10  LIG L   1      20.966  48.852  20.566  1.00  0.00     0.048 A 
ATOM     13  N2  LIG L   1      19.891  49.027  18.391  1.00  0.00    -0.214 NA
ATOM     14 C11  LIG L   1      19.942  47.954  20.941  1.00  0.00     0.116 A 
ATOM     15  N3  LIG L   1      18.946  47.627  20.046  1.00  0.00    -0.223 NA
BRANCH   11   16
ATOM     16 C12  LIG L   1      21.928  50.350  18.692  1.00  0.00     0.019 A 
ATOM     17 C13  LIG L   1      24.178  50.896  17.692  1.00  0.00     0.020 A 
ATOM     18 C14  LIG L   1      23.237  49.930  18.210  1.00  0.00     0.013 A 
ATOM     19 C15  LIG L   1      23.789  52.282  17.668  1.00  0.00     0.111 A 
ATOM     20  N4  LIG L   1      22.525  52.674  18.132  1.00  0.00    -0.263 NA
ATOM     21 C16  LIG L   1      21.598  51.766  18.635  1.00  0.00     0.120 A 
ENDBRANCH   11   16
ENDBRANCH    8   10
ENDBRANCH    1    8
BRANCH    5   22
ATOM     22  N5  LIG L   1      16.127  51.991  15.783  1.00  0.00    -0.281 N 
ATOM     23 C17  LIG L   1      15.643  52.224  14.506  1.00  0.00     0.248 C 
ATOM     24  H2  LIG L   1      16.634  52.728  16.195  1.00  0.00     0.155 HD
ATOM     25  O1  LIG L   1      15.190  51.360  13.771  1.00  0.00    -0.270 OA
BRANCH   23   26
ATOM     26 C18  LIG L   1      15.681  53.616  13.963  1.00  0.00     0.037 A 
ATOM     27 C19  LIG L   1      16.950  54.322  13.771  1.00  0.00     0.013 A 
ATOM     28 C20  LIG L   1      14.434  54.273  13.633  1.00  0.00     0.013 A 
ATOM     29 C21  LIG L   1      16.957  55.670  13.261  1.00  0.00     0.002 A 
ATOM     30 C22  LIG L   1      14.445  55.594  13.133  1.00  0.00     0.002 A 
ATOM     31 C23  LIG L   1      15.689  56.320  12.937  1.00  0.00    -0.064 A 
BRANCH   31   32
ATOM     32 C24  LIG L   1      15.600  57.764  12.408  1.00  0.00    -0.043 C 
BRANCH   32   33
ATOM     33  N6  LIG L   1      14.330  58.508  12.659  1.00  0.00     0.380 N 
ATOM     34 C25  LIG L   1      14.620  59.897  13.171  1.00  0.00    -0.097 C 
ATOM     35 C26  LIG L   1      13.450  58.581  11.408  1.00  0.00    -0.097 C 
ATOM     36  H3  LIG L   1      13.814  57.989  13.370  1.00  0.00    -0.082 HD
ATOM     37 C27  LIG L   1      13.309  60.681  13.458  1.00  0.00    -0.098 C 
ATOM     38 C28  LIG L   1      12.115  59.342  11.694  1.00  0.00    -0.098 C 
ATOM     39  N7  LIG L   1      12.433  60.745  12.215  1.00  0.00     0.375 N 
ATOM     40 C29  LIG L   1      11.180  61.483  12.430  1.00  0.00    -0.096 C 
ATOM     41  H4  LIG L   1      12.975  61.256  11.518  1.00  0.00    -0.082 HD
ENDBRANCH   32   33
ENDBRANCH   31   32
ENDBRANCH   23   26
ENDBRANCH    5   22
TORSDOF 7
ENDMDL
MODEL 3
REMARK VINA RESULT:   -11.145      3.689     12.179
REMARK INTER + INTRA:         -16.161
REMARK INTER:                 -15.943
REMARK INTRA:                  -0.218
REMARK UNBOUND:                -0.455
REMARK Flexibility Score: inf
REMARK Active torsions [ 7 ] -> [ 7 ]
ROOT
ATOM      1  C1  LIG L   1      18.071  48.618  18.895  1.00  0.00     0.038 A 
ATOM      2  C2  LIG L   1      17.054  47.567  19.015  1.00  0.00    -0.029 A 
ATOM      3  C3  LIG L   1      15.946  47.589  18.103  1.00  0.00     0.007 A 
ATOM      4  C4  LIG L   1      15.841  48.617  17.098  1.00  0.00     0.024 A 
ATOM      5  C5  LIG L   1      16.829  49.638  16.977  1.00  0.00     0.035 A 
ATOM      6  C6  LIG L   1      17.953  49.622  17.899  1.00  0.00     0.047 A 
ATOM      7  C7  LIG L   1      17.119  46.437  20.068  1.00  0.00     0.045 C 
ENDROOT
BRANCH    1    8
ATOM      8  N1  LIG L   1      19.172  48.651  19.754  1.00  0.00    -0.283 N 
ATOM      9  H1  LIG L   1      19.038  48.857  20.708  1.00  0.00     0.155 HD
BRANCH    8   10
ATOM     10  C8  LIG L   1      20.450  48.398  19.280  1.00  0.00     0.220 A 
ATOM     11  C9  LIG L   1      22.508  49.290  18.479  1.00  0.00     0.077 A 
ATOM     12 C10  LIG L   1      23.038  47.969  18.298  1.00  0.00     0.048 A 
ATOM     13  N2  LIG L   1      21.231  49.453  18.967  1.00  0.00    -0.214 NA
ATOM     14 C11  LIG L   1      22.200  46.882  18.635  1.00  0.00     0.116 A 
ATOM     15  N3  LIG L   1      20.929  47.111  19.116  1.00  0.00    -0.223 NA
BRANCH   11   16
ATOM     16 C12  LIG L   1      23.270  50.540  18.165  1.00  0.00     0.019 A 
ATOM     17 C13  LIG L   1      25.012  51.832  16.876  1.00  0.00     0.020 A 
ATOM     18 C14  LIG L   1      24.306  50.600  17.141  1.00  0.00     0.013 A 
ATOM     19 C15  LIG L   1      24.668  52.995  17.651  1.00  0.00     0.111 A 
ATOM     20  N4  LIG L   1      23.668  52.926  18.633  1.00  0.00    -0.263 NA
ATOM     21 C16  LIG L   1      22.970  51.754  18.908  1.00  0.00     0.120 A 
ENDBRANCH   11   16
ENDBRANCH    8   10
ENDBRANCH    1    8
BRANCH    5   22
ATOM     22  N5  LIG L   1      16.660  50.626  15.941  1.00  0.00    -0.281 N 
ATOM     23 C17  LIG L   1      15.692  51.613  15.855  1.00  0.00     0.248 C 
ATOM     24  H2  LIG L   1      17.312  50.595  15.204  1.00  0.00     0.155 HD
ATOM     25  O1  LIG L   1      14.690  51.661  16.553  1.00  0.00    -0.270 OA
BRANCH   23   26
ATOM     26 C18  LIG L   1      15.853  52.696  14.838  1.00  0.00     0.037 A 
ATOM     27 C19  LIG L   1      14.824  53.722  14.650  1.00  0.00     0.013 A 
ATOM     28 C20  LIG L   1      17.046  52.717  14.019  1.00  0.00     0.013 A 
ATOM     29 C21  LIG L   1      14.996  54.745  13.650  1.00  0.00     0.002 A 
ATOM     30 C22  LIG L   1      17.212  53.722  13.040  1.00  0.00     0.002 A 
ATOM     31 C23  LIG L   1      16.205  54.748  12.829  1.00  0.00    -0.064 A 
BRANCH   31   32
ATOM     32 C24  LIG L   1      16.463  55.789  11.724  1.00  0.00    -0.043 C 
BRANCH   32   33
ATOM     33  N6  LIG L   1      15.821  57.129  11.883  1.00  0.00     0.380 N 
ATOM     34 C25  LIG L   1      14.326  56.987  12.032  1.00  0.00    -0.097 C 
ATOM     35 C26  LIG L   1      16.397  57.904  13.071  1.00  0.00    -0.097 C 
ATOM     36  H3  LIG L   1      16.025  57.661  11.037  1.00  0.00    -0.082 HD
ATOM     37 C27  LIG L   1      13.637  58.372  12.178  1.00  0.00    -0.098 C 
ATOM     38 C28  LIG L   1      15.731  59.312  13.209  1.00  0.00    -0.098 C 
ATOM     39  N7  LIG L   1      14.218  59.144  13.354  1.00  0.00     0.375 N 
ATOM     40 C29  LIG L   1      13.594  60.462  13.543  1.00  0.00    -0.096 C 
ATOM     41  H4  LIG L   1      14.011  58.586  14.183  1.00  0.00    -0.082 HD
ENDBRANCH   32   33
ENDBRANCH   31   32
ENDBRANCH   23   26
ENDBRANCH    5   22
TORSDOF 7
ENDMDL
MODEL 4
REMARK VINA RESULT:   -10.295      2.477     12.483
REMARK INTER + INTRA:         -14.963
REMARK INTER:                 -14.699
REMARK INTRA:                  -0.264
REMARK UNBOUND:                -0.455
REMARK Flexibility Score: inf
REMARK Active torsions [ 7 ] -> [ 7 ]
ROOT
ATOM      1  C1  LIG L   1      15.346  48.109  18.329  1.00  0.00     0.038 A 
ATOM      2  C2  LIG L   1      14.035  47.978  18.976  1.00  0.00    -0.029 A 
ATOM      3  C3  LIG L   1      13.049  48.989  18.721  1.00  0.00     0.007 A 
ATOM      4  C4  LIG L   1      13.344  50.100  17.850  1.00  0.00     0.024 A 
ATOM      5  C5  LIG L   1      14.615  50.228  17.217  1.00  0.00     0.035 A 
ATOM      6  C6  LIG L   1      15.619  49.207  17.475  1.00  0.00     0.047 A 
ATOM      7  C7  LIG L   1      13.662  46.806  19.914  1.00  0.00     0.045 C 
ENDROOT
BRANCH    1    8
ATOM      8  N1  LIG L   1      16.347  47.158  18.541  1.00  0.00    -0.283 N 
ATOM      9  H1  LIG L   1      16.341  46.321  18.021  1.00  0.00     0.155 HD
BRANCH    8   10
ATOM     10  C8  LIG L   1      17.349  47.379  19.474  1.00  0.00     0.220 A 
ATOM     11  C9  LIG L   1      19.618  47.980  19.881  1.00  0.00     0.077 A 
ATOM     12 C10  LIG L   1      19.430  47.827  21.295  1.00  0.00     0.048 A 
ATOM     13  N2  LIG L   1      18.565  47.751  19.023  1.00  0.00    -0.214 NA
ATOM     14 C11  LIG L   1      18.146  47.438  21.740  1.00  0.00     0.116 A 
ATOM     15  N3  LIG L   1      17.134  47.221  20.831  1.00  0.00    -0.223 NA
BRANCH   11   16
ATOM     16 C12  LIG L   1      20.917  48.383  19.255  1.00  0.00     0.019 A 
ATOM     17 C13  LIG L   1      22.561  50.109  18.429  1.00  0.00     0.020 A 
ATOM     18 C14  LIG L   1      21.293  49.774  19.036  1.00  0.00     0.013 A 
ATOM     19 C15  LIG L   1      23.438  49.035  18.044  1.00  0.00     0.111 A 
ATOM     20  N4  LIG L   1      23.065  47.700  18.260  1.00  0.00    -0.263 NA
ATOM     21 C16  LIG L   1      21.853  47.347  18.845  1.00  0.00     0.120 A 
ENDBRANCH   11   16
ENDBRANCH    8   10
ENDBRANCH    1    8
BRANCH    5   22
ATOM     22  N5  LIG L   1      14.831  51.361  16.353  1.00  0.00    -0.281 N 
ATOM     23 C17  LIG L   1      16.008  51.746  15.732  1.00  0.00     0.248 C 
ATOM     24  H2  LIG L   1      14.046  51.931  16.183  1.00  0.00     0.155 HD
ATOM     25  O1  LIG L   1      17.111  51.292  15.999  1.00  0.00    -0.270 OA
BRANCH   23   26
ATOM     26 C18  LIG L   1      15.955  52.798  14.672  1.00  0.00     0.037 A 
ATOM     27 C19  LIG L   1      14.817  53.715  14.567  1.00  0.00     0.013 A 
ATOM     28 C20  LIG L   1      17.048  52.898  13.728  1.00  0.00     0.013 A 
ATOM     29 C21  LIG L   1      14.782  54.709  13.524  1.00  0.00     0.002 A 
ATOM     30 C22  LIG L   1      17.011  53.874  12.707  1.00  0.00     0.002 A 
ATOM     31 C23  LIG L   1      15.892  54.793  12.577  1.00  0.00    -0.064 A 
BRANCH   31   32
ATOM     32 C24  LIG L   1      15.930  55.809  11.420  1.00  0.00    -0.043 C 
BRANCH   32   33
ATOM     33  N6  LIG L   1      15.412  57.182  11.699  1.00  0.00     0.380 N 
ATOM     34 C25  LIG L   1      13.911  57.161  11.857  1.00  0.00    -0.097 C 
ATOM     35 C26  LIG L   1      16.063  57.801  12.939  1.00  0.00    -0.097 C 
ATOM     36  H3  LIG L   1      15.657  57.763  10.897  1.00  0.00    -0.082 HD
ATOM     37 C27  LIG L   1      13.350  58.585  12.127  1.00  0.00    -0.098 C 
ATOM     38 C28  LIG L   1      15.527  59.245  13.202  1.00  0.00    -0.098 C 
ATOM     39  N7  LIG L   1      14.005  59.201  13.354  1.00  0.00     0.375 N 
ATOM     40 C29  LIG L   1      13.504  60.549  13.660  1.00  0.00    -0.096 C 
ATOM     41  H4  LIG L   1      13.755  58.596  14.137  1.00  0.00    -0.082 HD
ENDBRANCH   32   33
ENDBRANCH   31   32
ENDBRANCH   23   26
ENDBRANCH    5   22
TORSDOF 7
ENDMDL
